units(length='cm', time='s', quantity='mol', act_energy='kcal/mol')

ideal_gas(name='gas',
          elements="H D T C Ci O Oi N Ne Ar He Si S F Cl Br I X",
          species="""Ar        He        Ne        N2        H2(1)
                     O2(2)     H(3)      HO2(4)    OH(D)(5)  O(T)(6)
                     OO(7)     H2O(10)""",
          reactions='all',
          transport='Mix',
          initial_state=state(temperature=300.0, pressure=OneAtm))

#-------------------------------------------------------------------------------
# Element data
#-------------------------------------------------------------------------------

element(symbol='Ci', atomic_mass=13.003)
element(symbol='D', atomic_mass=2.014)
element(symbol='Oi', atomic_mass=18.0)
element(symbol='T', atomic_mass=3.016)
element(symbol='X', atomic_mass=195.083)
#-------------------------------------------------------------------------------
# Species data
#-------------------------------------------------------------------------------

species(name='Ar',
        atoms='Ar:1',
        thermo=(NASA([200.00, 1000.00],
                     [ 2.50000000E+00,  0.00000000E+00,  0.00000000E+00,
                       0.00000000E+00,  0.00000000E+00, -7.45375000E+02,
                       4.37967000E+00]),
                NASA([1000.00, 6000.00],
                     [ 2.50000000E+00,  0.00000000E+00,  0.00000000E+00,
                       0.00000000E+00,  0.00000000E+00, -7.45375000E+02,
                       4.37967000E+00])),
        transport=gas_transport(geom='atom',
                                diam=3.33,
                                well_depth=136.501))

species(name='He',
        atoms='He:1',
        thermo=(NASA([200.00, 1000.00],
                     [ 2.50000000E+00,  0.00000000E+00,  0.00000000E+00,
                       0.00000000E+00,  0.00000000E+00, -7.45375000E+02,
                       9.28724000E-01]),
                NASA([1000.00, 6000.00],
                     [ 2.50000000E+00,  0.00000000E+00,  0.00000000E+00,
                       0.00000000E+00,  0.00000000E+00, -7.45375000E+02,
                       9.28724000E-01])),
        transport=gas_transport(geom='atom',
                                diam=2.576,
                                well_depth=10.2))

species(name='Ne',
        atoms='Ne:1',
        thermo=(NASA([200.00, 1000.00],
                     [ 2.50000000E+00,  0.00000000E+00,  0.00000000E+00,
                       0.00000000E+00,  0.00000000E+00, -7.45375000E+02,
                       3.35532000E+00]),
                NASA([1000.00, 6000.00],
                     [ 2.50000000E+00,  0.00000000E+00,  0.00000000E+00,
                       0.00000000E+00,  0.00000000E+00, -7.45375000E+02,
                       3.35532000E+00])),
        transport=gas_transport(geom='atom',
                                diam=3.758,
                                well_depth=148.6))

species(name='N2',
        atoms='N:2',
        thermo=(NASA([200.00, 1000.00],
                     [ 3.53101000E+00, -1.23661000E-04, -5.02999000E-07,
                       2.43531000E-09, -1.40881000E-12, -1.04698000E+03,
                       2.96747000E+00]),
                NASA([1000.00, 6000.00],
                     [ 2.95258000E+00,  1.39690000E-03, -4.92632000E-07,
                       7.86010000E-11, -4.60755000E-15, -9.23949000E+02,
                       5.87189000E+00])),
        transport=gas_transport(geom='linear',
                                diam=3.621,
                                well_depth=97.53,
                                polar=1.76,
                                rot_relax=4.0))

species(name='H2(1)',
        atoms='H:2',
        thermo=(NASA([100.00, 1959.08],
                     [ 3.43536412E+00,  2.12710353E-04, -2.78625043E-07,
                       3.40267167E-10, -7.76031998E-14, -1.03135984E+03,
                      -3.90841732E+00]),
                NASA([1959.08, 5000.00],
                     [ 2.78816583E+00,  5.87640942E-04,  1.59010417E-07,
                      -5.52739026E-11,  4.34310984E-15, -5.96144270E+02,
                       1.12732655E-01])),
        transport=gas_transport(geom='linear',
                                diam=2.92,
                                well_depth=38.0,
                                polar=0.79,
                                rot_relax=280.0))

species(name='O2(2)',
        atoms='O:2',
        thermo=(NASA([100.00, 1074.56],
                     [ 3.53732181E+00, -1.21570930E-03,  5.31617826E-06,
                      -4.89443424E-09,  1.45845042E-12, -1.03858846E+03,
                       4.68368406E+00]),
                NASA([1074.56, 5000.00],
                     [ 3.15382425E+00,  1.67803802E-03, -7.69971022E-07,
                       1.51274714E-10, -1.08781801E-14, -1.04081878E+03,
                       6.16753884E+00])),
        transport=gas_transport(geom='linear',
                                diam=3.458,
                                well_depth=107.4,
                                polar=1.6,
                                rot_relax=3.8))

species(name='H(3)',
        atoms='H:1',
        thermo=(NASA([100.00, 3459.60],
                     [ 2.50000000E+00,  9.24384602E-15, -1.36779837E-17,
                       6.66184769E-21, -1.00106912E-24,  2.54742178E+04,
                      -4.44972896E-01]),
                NASA([3459.60, 5000.00],
                     [ 2.49999999E+00,  9.20455546E-12, -3.58608293E-15,
                       6.15198922E-19, -3.92041801E-23,  2.54742178E+04,
                      -4.44972842E-01])),
        transport=gas_transport(geom='atom',
                                diam=2.05,
                                well_depth=145.0))

species(name='HO2(4)',
        atoms='H:1 O:2',
        thermo=(NASA([100.00, 932.13],
                     [ 4.04595233E+00, -1.73474005E-03,  1.03769950E-05,
                      -1.02207268E-08,  3.34930151E-12, -9.86754562E+02,
                       4.63578650E+00]),
                NASA([932.13, 5000.00],
                     [ 3.21021575E+00,  3.67945961E-03, -1.27703899E-06,
                       2.18050820E-10, -1.46342588E-14, -9.10359190E+02,
                       8.18304670E+00])),
        transport=gas_transport(geom='nonlinear',
                                diam=3.458,
                                well_depth=107.4,
                                rot_relax=1.0))

species(name='OH(D)(5)',
        atoms='H:1 O:1',
        thermo=(NASA([100.00, 1145.75],
                     [ 3.51456768E+00,  2.92814373E-05, -5.32176582E-07,
                       1.01950588E-09, -3.85951152E-13,  3.41425421E+03,
                       2.10435015E+00]),
                NASA([1145.75, 5000.00],
                     [ 3.07194246E+00,  6.04011411E-04, -1.39759127E-08,
                      -2.13451563E-11,  2.48070095E-15,  3.57938557E+03,
                       4.57798500E+00])),
        transport=gas_transport(geom='linear',
                                diam=2.75,
                                well_depth=80.0))

species(name='O(T)(6)',
        atoms='O:1',
        thermo=(NASA([100.00, 3459.60],
                     [ 2.50000000E+00,  9.24384602E-15, -1.36779837E-17,
                       6.66184769E-21, -1.00106912E-24,  2.92302441E+04,
                       5.12616427E+00]),
                NASA([3459.60, 5000.00],
                     [ 2.49999999E+00,  9.20455546E-12, -3.58608293E-15,
                       6.15198922E-19, -3.92041801E-23,  2.92302441E+04,
                       5.12616433E+00])),
        transport=gas_transport(geom='atom',
                                diam=2.75,
                                well_depth=80.0))

species(name='OO(7)',
        atoms='H:2 O:2',
        thermo=(NASA([100.00, 908.86],
                     [ 3.73136642E+00,  3.35060430E-03,  9.35072698E-06,
                      -1.52105192E-08,  6.41611128E-12, -1.77211712E+04,
                       5.45907862E+00]),
                NASA([908.86, 5000.00],
                     [ 5.41576461E+00,  2.61012083E-03, -4.39915287E-07,
                       4.91143478E-11, -3.35235545E-15, -1.83029432E+04,
                      -4.02235599E+00])),
        transport=gas_transport(geom='nonlinear',
                                diam=3.458,
                                well_depth=107.4,
                                rot_relax=3.8))

species(name='H2O(10)',
        atoms='H:2 O:1',
        thermo=(NASA([100.00, 1130.24],
                     [ 4.05763610E+00, -7.87938871E-04,  2.90878480E-06,
                      -1.47520039E-09,  2.12847506E-13, -3.02815866E+04,
                      -3.11365027E-01]),
                NASA([1130.24, 5000.00],
                     [ 2.84324866E+00,  2.75108838E-03, -7.81033120E-07,
                       1.07244016E-10, -5.79395308E-15, -2.99586120E+04,
                       5.91043011E+00])),
        transport=gas_transport(geom='nonlinear',
                                diam=2.605,
                                well_depth=572.402,
                                dipole=1.844,
                                rot_relax=4.0))

#-------------------------------------------------------------------------------
# Reaction data
#-------------------------------------------------------------------------------
#  Reaction index: Chemkin #1; RMG #1
#  Template reaction: R_Recombination
#  Flux pairs: H(3), H2(1); H(3), H2(1);
#  Matched reaction 56 H + H <=> H2 in R_Recombination/training
#  This reaction matched rate rule [Root_1R->H_N-2R->S_2CHNO->H]
#  family: R_Recombination

# Reaction 1
reaction('H(3) + H(3) <=> H2(1)', [5.450000e+10, 0.0, 1.5],
         options='duplicate')
#  Reaction index: Chemkin #2; RMG #4
#  Template reaction: R_Recombination
#  Flux pairs: H(3), H2(1); H(3), H2(1);
#  Matched reaction 56 H + H <=> H2 in R_Recombination/training
#  This reaction matched rate rule [Root_1R->H_N-2R->S_2CHNO->H]
#  family: R_Recombination

# Reaction 2
reaction('H(3) + H(3) <=> H2(1)', [5.450000e+10, 0.0, 1.5],
         options='duplicate')
#  Reaction index: Chemkin #3; RMG #2
#  Template reaction: H_Abstraction
#  Flux pairs: O2(2), HO2(4); H2(1), H(3);
#  Matched reaction 306 H2 + O2 <=> HO2_r12 + H in H_Abstraction/training
#  This reaction matched rate rule [H2;O2b]
#  family: H_Abstraction

# Reaction 3
reaction('O2(2) + H2(1) <=> H(3) + HO2(4)', [2.900000e+14, 0.0, 56.64])
#  Reaction index: Chemkin #4; RMG #3
#  Template reaction: R_Recombination
#  Flux pairs: H(3), HO2(4); O2(2), HO2(4);
#  Matched reaction 104 O2 + H <=> HO2-2 in R_Recombination/training
#  This reaction matched rate rule [Root_1R->H_N-2R->S_N-2CHNO->H_N-2CNO-inRing_Ext-2CNO-R_N-Sp-3R!H=2CCNNOO_2CNO->O_3R!H->O]
#  family: R_Recombination

# Reaction 4
reaction('O2(2) + H(3) <=> HO2(4)', [8.790000e+10, 1.0, 0.45])
#  Reaction index: Chemkin #5; RMG #6
#  Template reaction: H_Abstraction
#  Flux pairs: OO(7), HO2(4); H(3), H2(1);
#  Estimated using average of templates [O/H/NonDeO;H_rad] + [H2O2;Y_rad] for rate rule [H2O2;H_rad]
#  Euclidian distance = 1.0
#  Multiplied by reaction path degeneracy 2.0
#  family: H_Abstraction

# Reaction 5
reaction('H(3) + OO(7) <=> HO2(4) + H2(1)', [1.118496e+06, 1.661, 6.697])
#  Reaction index: Chemkin #6; RMG #8
#  Template reaction: R_Recombination
#  Flux pairs: HO2(4), OO(7); H(3), OO(7);
#  BM rule fitted to 2 training reactions at node Root_1R->H_N-2R->S_N-2CHNO->H_N-2CNO-inRing_Ext-2CNO-R_N-Sp-3R!H=2CCNNOO_2CNO->O_3R!H->O
#      Total Standard Deviation in ln(k): 11.5401827615
#  Exact match found for rate rule [Root_1R->H_N-2R->S_N-2CHNO->H_N-2CNO-inRing_Ext-2CNO-R_N-Sp-3R!H=2CCNNOO_2CNO->O_3R!H->O]
#  Euclidian distance = 0
#  family: R_Recombination

# Reaction 6
reaction('H(3) + HO2(4) <=> OO(7)', [5.250690e+09, 1.273, 0.0])
#  Reaction index: Chemkin #7; RMG #9
#  Template reaction: H_Abstraction
#  Flux pairs: HO2(4), OO(7); HO2(4), O2(2);
#  Matched reaction 405 HO2_r3 + HO2_r12 <=> H2O2 + O2 in H_Abstraction/training
#  This reaction matched rate rule [Orad_O_H;O_rad/NonDeO]
#  family: H_Abstraction

# Reaction 7
reaction('HO2(4) + HO2(4) <=> O2(2) + OO(7)', [1.750000e+10, 0.0, -3.275])
#  Reaction index: Chemkin #8; RMG #11
#  Template reaction: R_Recombination
#  Flux pairs: OH(D)(5), OO(7); OH(D)(5), OO(7);
#  Matched reaction 96 OH + OH <=> H2O2 in R_Recombination/training
#  This reaction matched rate rule [Root_N-1R->H_N-1CNOS->N_1COS->O_N-2R->C]
#  family: R_Recombination

# Reaction 8
reaction('OH(D)(5) + OH(D)(5) <=> OO(7)', [7.850000e+12, 0.0, 0.0])
#  Reaction index: Chemkin #9; RMG #13
#  Template reaction: H_Abstraction
#  Flux pairs: OH(D)(5), H2O(10); H2(1), H(3);
#  Matched reaction 312 H2 + OH <=> H2O_p + H_p in H_Abstraction/training
#  This reaction matched rate rule [H2;O_pri_rad]
#  family: H_Abstraction

# Reaction 9
reaction('OH(D)(5) + H2(1) <=> H(3) + H2O(10)', [1.820000e+09, 1.21, 20.07])
#  Reaction index: Chemkin #10; RMG #17
#  Template reaction: R_Recombination
#  Flux pairs: OH(D)(5), H2O(10); H(3), H2O(10);
#  Matched reaction 64 H + OH <=> H2O in R_Recombination/training
#  This reaction matched rate rule [Root_1R->H_N-2R->S_N-2CHNO->H_N-2CNO-inRing_2CNO->O]
#  family: R_Recombination

# Reaction 10
reaction('H(3) + OH(D)(5) <=> H2O(10)', [1.620000e+14, 0.0, 0.15])
#  Reaction index: Chemkin #11; RMG #18
#  Template reaction: H_Abstraction
#  Flux pairs: H2O(10), OH(D)(5); O2(2), HO2(4);
#  Matched reaction 379 H2O + O2 <=> HO2_r12 + OH_p23 in H_Abstraction/training
#  This reaction matched rate rule [Orad_O_H;O_pri_rad]
#  family: H_Abstraction

# Reaction 11
reaction('O2(2) + H2O(10) <=> OH(D)(5) + HO2(4)', [9.300000e+12, 0.0, 74.12])
#  Reaction index: Chemkin #12; RMG #21
#  Template reaction: H_Abstraction
#  Flux pairs: OH(D)(5), H2O(10); OO(7), HO2(4);
#  Estimated using average of templates [O/H/NonDeO;O_pri_rad] + [H2O2;O_rad] for rate rule [H2O2;O_pri_rad]
#  Euclidian distance = 1.0
#  Multiplied by reaction path degeneracy 2.0
#  family: H_Abstraction

# Reaction 12
reaction('OH(D)(5) + OO(7) <=> HO2(4) + H2O(10)', [4.994995e+05, 1.927, 6.325])
#  Reaction index: Chemkin #13; RMG #5
#  Template reaction: Birad_R_Recombination
#  Flux pairs: OH(D)(5), HO2(4); O(T)(6), HO2(4);
#  Estimated using template [O_rad;O_birad] for rate rule [O_pri_rad;O_birad]
#  Euclidian distance = 1.0
#  family: Birad_R_Recombination

# Reaction 13
reaction('O(T)(6) + OH(D)(5) <=> HO2(4)', [1.548026e+07, 1.88, 1.235],
         options='duplicate')
#  Reaction index: Chemkin #14; RMG #12
#  Template reaction: Birad_R_Recombination
#  Flux pairs: H(3), OH(D)(5); O(T)(6), OH(D)(5);
#  Matched reaction 4 H + O <=> HO in Birad_R_Recombination/training
#  This reaction matched rate rule [H_rad;O_birad]
#  family: Birad_R_Recombination

# Reaction 14
reaction('O(T)(6) + H(3) <=> OH(D)(5)', [1.000000e+13, 0.0, 0.0])
#  Reaction index: Chemkin #15; RMG #14
#  Template reaction: H_Abstraction
#  Flux pairs: HO2(4), O2(2); O(T)(6), OH(D)(5);
#  Estimated using average of templates [X_H;O_atom_triplet] + [Orad_O_H;Y_rad_birad_trirad_quadrad] for rate rule [Orad_O_H;O_atom_triplet]
#  Euclidian distance = 2.0
#  family: H_Abstraction

# Reaction 15
reaction('O(T)(6) + HO2(4) <=> O2(2) + OH(D)(5)', [3.820630e+09, 0.685, 5.286])
#  Reaction index: Chemkin #16; RMG #16
#  Template reaction: H_Abstraction
#  Flux pairs: H2(1), H(3); O(T)(6), OH(D)(5);
#  Matched reaction 285 H2 + O_rad <=> HO + H in H_Abstraction/training
#  This reaction matched rate rule [OH_rad_H;H_rad]
#  family: H_Abstraction

# Reaction 16
reaction('O(T)(6) + H2(1) <=> H(3) + OH(D)(5)', [3.400000e+08, 1.5, 22.95])
#  Reaction index: Chemkin #17; RMG #19
#  Template reaction: H_Abstraction
#  Flux pairs: OO(7), HO2(4); O(T)(6), OH(D)(5);
#  Estimated using template [O/H/NonDeO;O_atom_triplet] for rate rule [H2O2;O_atom_triplet]
#  Euclidian distance = 1.0
#  Multiplied by reaction path degeneracy 2.0
#  family: H_Abstraction

# Reaction 17
reaction('O(T)(6) + OO(7) <=> OH(D)(5) + HO2(4)', [1.740000e+13, 0.0, 4.75])
#  Reaction index: Chemkin #18; RMG #22
#  Template reaction: H_Abstraction
#  Flux pairs: H2O(10), OH(D)(5); O(T)(6), OH(D)(5);
#  Matched reaction 380 H2O + O_rad <=> HO + OH_p23 in H_Abstraction/training
#  This reaction matched rate rule [OH_rad_H;O_pri_rad]
#  family: H_Abstraction

# Reaction 18
reaction('O(T)(6) + H2O(10) <=> OH(D)(5) + OH(D)(5)', [5.260000e+09, 1.2, 17.83])
#  Reaction index: Chemkin #19; RMG #25
#  Template reaction: Birad_R_Recombination
#  Flux pairs: O(T)(6), HO2(4); OH(D)(5), HO2(4);
#  Estimated using template [O_rad;O_birad] for rate rule [O_pri_rad;O_birad]
#  Euclidian distance = 1.0
#  family: Birad_R_Recombination

# Reaction 19
reaction('O(T)(6) + OH(D)(5) <=> HO2(4)', [1.548026e+07, 1.88, 1.235],
         options='duplicate')
